Circuit: * C:\Users\dimaf\Desktop\progadima\Draft1.asc

Direct Newton iteration for .op point succeeded.

Date: Mon Feb 27 11:59:05 2023
Total elapsed time: 0.060 seconds.

tnom = 27
temp = 27
method = trap
totiter = 3
traniter = 0
tranpoints = 0
accept = 0
rejected = 0
matrix size = 16
fillins = 23
solver = Normal
Matrix Compiler1: 1.46 KB object code size
Matrix Compiler2: 1.50 KB object code size
